reduced_networks/case533mt/83pct/case533mt_reduced_s2.m
%% case533mt_reduced_s2 -- Opti-KRON reduction of case533mt
%
%   533 buses reduced to 88 super-nodes (83.5% reduction), 87 branches.
%   Loads are scenario 2 of 2.
%
%   Equivalent branches come from the Kron-reduced admittance matrix, so a
%   negative resistance is possible and is not an error -- an equivalent
%   branch stands in for eliminated network, not for a conductor.
%
%   Bus map -- each super-node and the original buses it represents:
%     1 <- 1 4
%     2 <- 2 28 29 36 37 38 39 40 60 61 62 63 72 73 74 75 76 77 81 82 217 222 243 262
%     3 <- 3 83 211 212 218 219 220 221 224 230 233
%     5 <- 5 9 22 23 24 25 26 27 44 45 46 48 55 56 57 58 59
%     6 <- 6 41
%     7 <- 7 8
%     10 <- 10 11 12 13 14 15 16 17 18 19 20 21
%     30 <- 30 31 32 33 34 35
%     42 <- 42 43
%     47 <- 47
%     49 <- 49 53 54
%     50 <- 50 51 52
%     64 <- 64 65 66 69 70 71
%     78 <- 78 79 80 130
%     84 <- 84
%     85 <- 85 86 87 88 89 90 91 92 93 94 95 96 97 98 99 100
%     101 <- 101
%     102 <- 102
%     103 <- 103 104
%     105 <- 105 106 107
%     108 <- 108
%     109 <- 109 131
%     110 <- 110 111
%     112 <- 112
%     113 <- 113 114 115 116 117 118 119 120 121 122 123 124 125
%     126 <- 126 127 128 129 195
%     132 <- 132
%     133 <- 133 134
%     135 <- 135 136 166
%     137 <- 137 138
%     139 <- 139
%     140 <- 140
%     141 <- 141 142 143 144 145 146 147 148 149 150 151
%     160 <- 152 153 154 155 156 157 158 159 160 161 162 163 164 165 207 208 209 210
%     167 <- 167 168 169 170 171
%     172 <- 172 173 174 175 176 177
%     178 <- 178 179 181 182 197 198 199 200 201 202 203 204 205 206
%     183 <- 183 184 185 186 196
%     187 <- 187 188 189 190 191 192 193 194
%     213 <- 213 215 216 223
%     225 <- 225 226 227 228 229
%     231 <- 231 232 234 235 236 237
%     238 <- 238
%     239 <- 239
%     240 <- 67 68 240 250 251
%     241 <- 241 242 249 252 253 254
%     244 <- 244
%     245 <- 214 245 246 247 248
%     255 <- 180 255 256 257 263 264 265
%     258 <- 258 259
%     260 <- 260 261
%     266 <- 266 327 352 353 448 449 450 451 452 453 454 455 456 457 513
%     267 <- 267 307 505 506
%     268 <- 268 269
%     270 <- 270 271
%     272 <- 272 273 274 275 276 277 278 279 280 281 282 283 284 285 286 287 288 289 290 291 292 293 301 302 303 304 305 306
%     308 <- 308 309 310 311 312 313 314 315
%     316 <- 316 317 318 326
%     319 <- 294 295 296 297 298 299 300 319 320 321 322 323 324 325
%     328 <- 328 329 330 331 350 351
%     332 <- 332 333 334 335 336 337 338 339 340 341 342 343 344 345 346 347 348 349
%     354 <- 354 355 356
%     357 <- 357 358 359 360
%     361 <- 361 362 363 364 365 366 367 368 417 418
%     369 <- 369 370 371 372 373 374 375 376
%     377 <- 377 378
%     379 <- 379 429
%     380 <- 380
%     381 <- 381 382 383 385 427 428
%     384 <- 384 386
%     387 <- 387 388 389 390 391
%     392 <- 392 393
%     394 <- 394 395 396 397 398 399 400 401 403 404 405 406 407
%     402 <- 402 408 409 410 411 412 413 414 415 416 419 420
%     421 <- 421 422 423 424 425 426
%     430 <- 430 431 432 444 445 446 447
%     433 <- 433 434 435 436 437 438 439 440 441 442
%     443 <- 443
%     458 <- 458 459 460 461 462 463 464 465 466 467 468 469 470 471 500 501 502 503 504
%     472 <- 472 473 474 475 476 488 489 490 491 492
%     477 <- 477 478 479 480 481 482 483 484 485 486 487 493 494 495 496 497 499
%     510 <- 510 512
%     511 <- 507 508 509 511
%     514 <- 514 515 516
%     517 <- 498 517 533
%     518 <- 518 519 520
%     521 <- 521 522 523 532
%     524 <- 524 525 526 527 528 529 530 531

function mpc = case533mt_reduced_s2
mpc.version = '2';
mpc.baseMVA = 1;

%% bus data
%	bus_i	type	Pd	Qd	Gs	Bs	area	Vm	Va	baseKV	zone	Vmax	Vmin
mpc.bus = [
	1	3	-0	-0	-2.2737367544323206e-13	2.2737367544323206e-13	1	1	0	1	1	1.1	0.9;
	2	1	0.05677627997999999	0.00056776199999999998	-3.9968028886505635e-14	1.936228954946273e-13	1	1	0	1	1	1.1	0.9;
	3	1	0.0077223599999999993	7.7222399999999988e-05	1.2612133559741778e-13	-3.0020430585864233e-13	1	1	0	1	1	1.1	0.9;
	5	1	0.009435939959999997	9.4363979999999992e-05	-6.6835786288113356e-15	-1.6823886621871235e-16	1	1	0	1	1	1.1	0.9;
	6	1	-0.00092438003999999988	-9.2440199999999996e-06	-5.0478233354918605e-15	-3.9260064608897877e-15	1	1	0	1	1	1.1	0.9;
	7	1	-0.025799999999999997	-0.00025799999999999998	-3.1086244689504383e-15	7.2164496600635175e-16	1	1	0	1	1	1.1	0.9;
	10	1	0.00067565802000000002	6.7579799999999989e-06	-9.7699626167013776e-15	-9.7699626167013776e-15	1	1	0	1	1	1.1	0.9;
	30	1	0.01679874	0.00016798739999999998	5.9057795808910508e-14	-1.3340483337283889e-13	1	1	0	1	1	1.1	0.9;
	42	1	-0.012880000019999997	-0.00012880001999999999	6.3486256715212638e-15	-7.9587634919129042e-15	1	1	0	1	1	1.1	0.9;
	47	1	-0.011740000019999999	-0.00011740002	0	0	1	1	0	1	1	1.1	0.9;
	49	1	-0.00022864002000000003	-2.2859999999999994e-06	1.0503839514047758e-14	1.1552585384747813e-14	1	1	0	1	1	1.1	0.9;
	50	1	-0.010524	-0.00010524198000000001	6.2874377641613066e-15	-1.0665960265269421e-14	1	1	0	1	1	1.1	0.9;
	64	1	0.0051236999999999993	5.1236399999999996e-05	-8.0788630543263031e-14	2.4603841224034408e-14	1	1	0	1	1	1.1	0.9;
	78	1	0.00074179998	7.4201999999999997e-06	-7.4278849897003023e-16	1.9647785566245094e-14	1	1	0	1	1	1.1	0.9;
	84	1	0.00034259999999999998	3.4259999999999999e-06	-5.3273486114919311e-15	-2.7632651375078702e-15	1	1	0	1	1	1.1	0.9;
	85	1	0.00094099998000000008	9.4085999999999983e-06	7.009981478725223e-14	-7.3125715949719131e-14	1	1	0	1	1	1.1	0.9;
	101	1	-6.0880019999999988e-05	-6.06e-07	0	0	1	1	0	1	1	1.1	0.9;
	102	1	-3.4159979999999997e-05	-3.4139999999999997e-07	0	0	1	1	0	1	1	1.1	0.9;
	103	1	0.00019526004	1.95e-06	1.0553561118530473e-14	-2.8355525442895747e-14	1	1	0	1	1	1.1	0.9;
	105	1	0.0013140799799999999	1.3138379999999998e-05	7.2568551724652666e-14	3.5958245511023034e-14	1	1	0	1	1	1.1	0.9;
	108	1	0.00097026000000000002	9.7025999999999992e-06	8.8817841970012523e-15	-3.5527136788005009e-15	1	1	0	1	1	1.1	0.9;
	109	1	0.00011716001999999998	1.1717999999999999e-06	-1.455082061128e-14	3.9995415025335475e-15	1	1	0	1	1	1.1	0.9;
	110	1	-0.00027398004000000001	-2.7419999999999993e-06	-1.2909580123187771e-14	1.3696207053037084e-14	1	1	0	1	1	1.1	0.9;
	112	1	5.9999999999999995e-05	5.9999999999999997e-07	-8.881784197001347e-15	8.8817841970004998e-15	1	1	0	1	1	1.1	0.9;
	113	1	-0.018724059959999997	-0.00018723779999999998	-3.9528664920389644e-14	2.8723719805143451e-14	1	1	0	1	1	1.1	0.9;
	126	1	-0.0057059000399999997	-5.7064019999999989e-05	2.7708509024750097e-14	-1.5709166794507839e-14	1	1	0	1	1	1.1	0.9;
	132	1	0.00018268001999999998	1.8239999999999998e-06	0	0	1	1	0	1	1	1.1	0.9;
	133	1	0.00032096003999999997	3.2099999999999998e-06	1.8597749837351831e-14	-1.0709676802575996e-14	1	1	0	1	1	1.1	0.9;
	135	1	0.00072017999999999995	7.2018000000000002e-06	1.8745127801441159e-14	-1.9473771698329117e-14	1	1	0	1	1	1.1	0.9;
	137	1	7.6240020000000003e-05	7.6439999999999994e-07	3.6288065302686198e-16	1.236102512903179e-14	1	1	0	1	1	1.1	0.9;
	139	1	-0.00024455999999999995	-2.4480000000000001e-06	8.3418371408944275e-15	2.5985550809466657e-14	1	1	0	1	1	1.1	0.9;
	140	1	-7.7980019999999997e-05	-7.7999999999999994e-07	-8.8817841970012523e-16	0	1	1	0	1	1	1.1	0.9;
	141	1	-0.0006218399999999997	-6.2141999999999997e-06	-5.9116454387791373e-14	-4.5185641605501696e-14	1	1	0	1	1	1.1	0.9;
	160	1	0.00047986200000000001	4.7950200000000004e-06	7.5682311282537696e-14	-1.8062536732890342e-13	1	1	0	1	1	1.1	0.9;
	167	1	-0.00014571996000000038	-1.4571599999999957e-06	-1.4703696475412635e-13	-1.6120473585334932e-14	1	1	0	1	1	1.1	0.9;
	172	1	-0.10430000009999998	-0.0010430000999999999	-1.0266033388523448e-12	4.047756120617984e-13	1	1	0	1	1	1.1	0.9;
	178	1	0.00030442002000000004	3.0467999999999998e-06	-3.6722687015911237e-13	5.1852319857725311e-13	1	1	0	1	1	1.1	0.9;
	183	1	0.00098843993999999996	9.8814e-06	-1.6926666164690144e-13	1.0594642247579579e-13	1	1	0	1	1	1.1	0.9;
	187	1	8.0900040000000004e-05	8.0279999999999975e-07	1.1036655433317519e-13	-8.2857271751052701e-14	1	1	0	1	1	1.1	0.9;
	213	1	0.0070178799599999999	7.0176779999999987e-05	-1.3453078627288002e-15	4.2359918044247149e-14	1	1	0	1	1	1.1	0.9;
	225	1	0.0012317000399999997	1.2314820000000001e-05	1.8887150783534877e-14	-1.6763532355730771e-13	1	1	0	1	1	1.1	0.9;
	231	1	0.0038269799999999998	3.8273399999999998e-05	8.5177534951102051e-14	2.0998451708784545e-13	1	1	0	1	1	1.1	0.9;
	238	1	0.0031120999800000001	3.1120980000000001e-05	-1.7763568394002505e-15	0	1	1	0	1	1	1.1	0.9;
	239	1	0.0052250200199999994	5.2250219999999991e-05	-3.5527136788005009e-15	0	1	1	0	1	1	1.1	0.9;
	240	1	0.011921939999999999	0.0001192194	-1.7763568394002505e-15	4.3964831775156199e-14	1	1	0	1	1	1.1	0.9;
	241	1	0.0096320000399999998	9.6321240000000005e-05	-1.0123603711508249e-13	-1.6706178585315428e-13	1	1	0	1	1	1.1	0.9;
	244	1	-0	-0	3.1454879713603423e-14	-7.1856459546656143e-14	1	1	0	1	1	1.1	0.9;
	245	1	0.0073400599799999999	7.3401599999999985e-05	1.421115644045185e-14	-7.1054534093342918e-15	1	1	0	1	1	1.1	0.9;
	255	1	0.010922699939999999	0.00010922693999999999	-2.2737367544323206e-13	2.19824158875781e-13	1	1	0	1	1	1.1	0.9;
	258	1	0.0059916199799999997	5.9913599999999995e-05	6.278843624523851e-14	-4.0247827233047489e-13	1	1	0	1	1	1.1	0.9;
	260	1	0.0015590800199999999	1.5591599999999998e-05	-1.1013412404281553e-13	4.7073456244106637e-14	1	1	0	1	1	1.1	0.9;
	266	1	0.0030350999999999998	3.0353039999999998e-05	2.1316282072803006e-14	2.886579864025407e-15	1	1	0	1	1	1.1	0.9;
	267	1	0.00029292005999999998	2.9340000000000002e-06	-3.5527136788005009e-15	7.5495165674510645e-15	1	1	0	1	1	1.1	0.9;
	268	1	0.00023719997999999999	2.3699999999999993e-06	1.3322676295501878e-15	1.5543122344752192e-15	1	1	0	1	1	1.1	0.9;
	270	1	-0.00054919997999999999	-5.4899999999999991e-06	1.7763568394002505e-15	4.4408920985006262e-16	1	1	0	1	1	1.1	0.9;
	272	1	0.0030187400999999998	3.0196199999999997e-05	-1.0562575656610896e-13	-2.4372338304958143e-13	1	1	0	1	1	1.1	0.9;
	308	1	0.00102488004	1.0247399999999998e-05	1.0425393907849771e-14	2.7277322275249222e-14	1	1	0	1	1	1.1	0.9;
	316	1	0.00040244003999999995	4.0217999999999993e-06	6.6613381477509392e-15	2.4424906541753444e-15	1	1	0	1	1	1.1	0.9;
	319	1	0.0014874400199999999	1.4868599999999999e-05	3.9968028886505635e-15	-3.3306690738754696e-14	1	1	0	1	1	1.1	0.9;
	328	1	-8.3000399999999606e-06	-7.8000000000000354e-08	-3.2862601528904634e-14	1.7430501486614958e-14	1	1	0	1	1	1.1	0.9;
	332	1	0.0013375399799999996	1.3372800000000003e-05	1.021405182655144e-13	-1.1102230246251565e-14	1	1	0	1	1	1.1	0.9;
	354	1	0.0005523599999999999	5.5264199999999999e-06	-7.1054273576010019e-15	2.2204460492503131e-15	1	1	0	1	1	1.1	0.9;
	357	1	0.00051742001999999991	5.1719999999999998e-06	-1.9539925233402755e-14	1.6431300764452317e-14	1	1	0	1	1	1.1	0.9;
	361	1	0.00049240001999999996	4.9259999999999991e-06	-1.4106555142600147e-14	1.0631827736896259e-14	1	1	0	1	1	1.1	0.9;
	369	1	-0.018800880000000002	-0.00018800999999999996	-5.934656326068016e-14	1.753376054765634e-14	1	1	0	1	1	1.1	0.9;
	377	1	-0.0085760000400000001	-8.5762019999999998e-05	-6.8548675365048944e-14	9.9316339062770886e-15	1	1	0	1	1	1.1	0.9;
	379	1	0.00027912	2.79e-06	0	-8.8817841970012523e-16	1	1	0	1	1	1.1	0.9;
	380	1	-0.00016942001999999999	-1.6919999999999999e-06	0	0	1	1	0	1	1	1.1	0.9;
	381	1	-0.016264039920000001	-0.00016263755999999997	2.3784647164808697e-15	-3.7888163215860805e-14	1	1	0	1	1	1.1	0.9;
	384	1	0.00027095999999999999	2.712e-06	-6.0188646410691651e-14	8.0087778608234488e-15	1	1	0	1	1	1.1	0.9;
	387	1	0.00021216203999999995	2.1208199999999998e-06	-1.3322676295501878e-14	1.6209256159527285e-14	1	1	0	1	1	1.1	0.9;
	392	1	0.00040121999999999998	4.0134000000000004e-06	-1.3375819301247406e-14	1.803831366464869e-14	1	1	0	1	1	1.1	0.9;
	394	1	0.00056717999999999992	5.672400000000001e-06	1.3915160049628603e-13	4.2165388470700607e-14	1	1	0	1	1	1.1	0.9;
	402	1	0.00063278003999999994	6.3314400000000003e-06	1.3974665688010602e-13	1.0832358989222895e-13	1	1	0	1	1	1.1	0.9;
	421	1	-0.031601020019999995	-0.00031601183999999994	8.8817841970012523e-15	-2.4646951146678475e-14	1	1	0	1	1	1.1	0.9;
	430	1	-0.00047246201999999996	-4.7248199999999998e-06	1.1215655537314479e-14	-1.3498135366684494e-14	1	1	0	1	1	1.1	0.9;
	433	1	-0.00021733799999999997	-2.1733799999999997e-06	4.2188474935755949e-14	3.5971225997855072e-14	1	1	0	1	1	1.1	0.9;
	443	1	-0.022919999999999999	-0.00022919999999999999	1.2434497875801753e-14	9.5479180117763462e-15	1	1	0	1	1	1.1	0.9;
	458	1	-0.00097418027999999959	-9.7322219999999982e-06	-7.28459195388586e-14	4.7013803005769833e-14	1	1	0	1	1	1.1	0.9;
	472	1	-0.00033483995999999998	-3.346379999999998e-06	2.7392103016885338e-14	-1.6664693605282261e-15	1	1	0	1	1	1.1	0.9;
	477	1	0.0006773999399999999	6.7759799999999961e-06	-7.2329551765203678e-14	5.4024689353518278e-14	1	1	0	1	1	1.1	0.9;
	510	1	0.0018220199999999997	1.8220199999999999e-05	1.7763568394002505e-15	-1.7763568394002505e-15	1	1	0	1	1	1.1	0.9;
	511	1	0.0058023400199999995	5.8025819999999997e-05	-2.4868995751603507e-14	-8.8817841970012523e-16	1	1	0	1	1	1.1	0.9;
	514	1	0.00093387995999999994	9.3419999999999997e-06	-3.1086244689504383e-15	4.4408920985006262e-16	1	1	0	1	1	1.1	0.9;
	517	1	-3.5599800000000119e-06	-3.6000000000000058e-08	-4.8849813083506888e-15	2.4424906541753444e-15	1	1	0	1	1	1.1	0.9;
	518	1	-5.9040000000000004e-05	-5.8800000000000013e-07	-9.7699626167013776e-15	4.2188474935755949e-15	1	1	0	1	1	1.1	0.9;
	521	1	0.00039794003999999995	3.9816000000000001e-06	8.8817841970012523e-16	-1.4432899320127035e-15	1	1	0	1	1	1.1	0.9;
	524	1	-7.040004000000025e-05	-6.9522000000000111e-07	8.8817841970012523e-16	7.7715611723760958e-16	1	1	0	1	1	1.1	0.9;
];

%% generator data
%	bus	Pg	Qg	Qmax	Qmin	Vg	mBase	status	Pmax	Pmin
mpc.gen = [
	1	0	0	9999	-9999	1	1	1	9999	-9999;
];

%% branch data
%	fbus	tbus	r	x	b	rateA	rateB	rateC	ratio	angle	status	angmin	angmax
mpc.branch = [
	1	2	0.00028918299999999999	0.00047541700000000001	0	0	0	0	0	0	1	-360	360;
	1	3	0.00032846699999999993	0.00066289199999999989	0	0	0	0	0	0	1	-360	360;
	2	5	0.24736426599999994	0.13925106199999981	0	0	0	0	0	0	1	-360	360;
	2	30	0.11026656200000098	0.057088410999999138	0	0	0	0	0	0	1	-360	360;
	2	64	0.14085031299999923	0.077061195000000207	0	0	0	0	0	0	1	-360	360;
	2	78	0.75161756099999744	0.19782766699999993	0	0	0	0	0	0	1	-360	360;
	2	238	0.059086458000000008	0.031777864000000003	0	0	0	0	0	0	1	-360	360;
	2	244	0.14590843800000014	0.074356043999999025	0	0	0	0	0	0	1	-360	360;
	2	255	0.26985402800000008	0.14991080200000001	0	0	0	0	0	0	1	-360	360;
	2	258	0.33720881900000027	0.17722095000000143	0	0	0	0	0	0	1	-360	360;
	2	260	0.14799871499999964	0.079977312999999314	0	0	0	0	0	0	1	-360	360;
	3	84	0.21743426999999982	0.077040795999999925	0	0	0	0	0	0	1	-360	360;
	3	109	0.35337743100000002	0.17770364299999997	0	0	0	0	0	0	1	-360	360;
	3	132	0.14278527799999999	0.068693431999999985	0	0	0	0	0	0	1	-360	360;
	3	167	0.042019305999999992	0.023342796999999995	0	0	0	0	0	0	1	-360	360;
	3	172	0.18320420900000003	0.12431944800000001	0	0	0	0	0	0	1	-360	360;
	3	178	0.40029923599998718	0.17365186099999852	0	0	0	0	0	0	1	-360	360;
	3	213	0.12834156299999858	0.066794186999999824	0	0	0	0	0	0	1	-360	360;
	3	225	0.015397778000000003	0.0085538590000000091	0	0	0	0	0	0	1	-360	360;
	3	231	0.064060277999999998	0.028331494000000623	0	0	0	0	0	0	1	-360	360;
	3	266	0.12242656399999999	0.068011082	0	0	0	0	0	0	1	-360	360;
	3	379	0.075623680999999998	0.041320343000000002	0	0	0	0	0	0	1	-360	360;
	3	430	0.049621389000000002	0.027565947999999996	0	0	0	0	0	0	1	-360	360;
	5	6	0.027863723000000003	0.0043734360000000014	0	0	0	0	0	0	1	-360	360;
	5	10	0.27487777799999991	0.083656794999999978	0	0	0	0	0	0	1	-360	360;
	5	47	0.50667777799999991	0.15420322099999997	0	0	0	0	0	0	1	-360	360;
	5	49	0.33794444499999932	0.10285061700000041	0	0	0	0	0	0	1	-360	360;
	6	7	0.39897798600000001	0.066484391000000018	0	0	0	0	0	0	1	-360	360;
	6	42	0.2914324310000001	0.049238573999999945	0	0	0	0	0	0	1	-360	360;
	49	50	0.099855556000000026	0.030390217999999972	0	0	0	0	0	0	1	-360	360;
	84	85	0.066499999999999976	0.02023872899999998	0	0	0	0	0	0	1	-360	360;
	84	101	0.18617933999999997	0.030111837999999995	0	0	0	0	0	0	1	-360	360;
	101	102	0.16846281299999996	0.027255388999999998	0	0	0	0	0	0	1	-360	360;
	102	103	0.14307777799999999	0.04354454700000001	0	0	0	0	0	0	1	-360	360;
	103	105	0.12207930600000007	0.067922978000000037	0	0	0	0	0	0	1	-360	360;
	105	108	0.15342142400000011	0.035073700000000173	0	0	0	0	0	0	1	-360	360;
	108	472	0.061041909999999991	0.052648729999999991	0	0	0	0	0	0	1	-360	360;
	109	110	0.22148888900000002	0.067408325000000019	0	0	0	0	0	0	1	-360	360;
	110	112	0.18676666699999983	0.056840900999999888	0	0	0	0	0	0	1	-360	360;
	112	113	0.10592222199999995	0.032236558999999984	0	0	0	0	0	0	1	-360	360;
	113	126	0.35726666700000087	0.10873117699999837	0	0	0	0	0	0	1	-360	360;
	132	133	0.077233333000000015	0.023505331000000004	0	0	0	0	0	0	1	-360	360;
	133	135	0.20747777800000033	0.063144158000000117	0	0	0	0	0	0	1	-360	360;
	135	137	0.19876666599999979	0.060493002999999906	0	0	0	0	0	0	1	-360	360;
	137	139	0.16366666699999996	0.049935069999999949	0	0	0	0	0	0	1	-360	360;
	139	140	0.142166667	0.044101089000000003	0	0	0	0	0	0	1	-360	360;
	140	141	0.13792222200000001	0.041975495999999994	0	0	0	0	0	0	1	-360	360;
	141	160	0.3562184029999978	0.13001742999999261	0	0	0	0	0	0	1	-360	360;
	178	183	0.29485507000000222	0.10767874299999963	0	0	0	0	0	0	1	-360	360;
	183	187	0.55081055599998185	0.13632788600001791	0	0	0	0	0	0	1	-360	360;
	238	239	0.083746249999999994	0.042291508999999998	0	0	0	0	0	0	1	-360	360;
	239	240	0.038104096999999996	0.019227637999999995	0	0	0	0	0	0	1	-360	360;
	240	241	0.10815784699999999	0.054566627999999992	0	0	0	0	0	0	1	-360	360;
	244	245	0.013072778000000002	0.0066955189999999996	0	0	0	0	0	0	1	-360	360;
	266	267	0.13329697700000001	0.074049873999999988	0	0	0	0	0	0	1	-360	360;
	266	328	0.15777222199999996	0.067297823000000007	0	0	0	0	0	0	1	-360	360;
	266	354	0.18676729200000008	0.078801180000000096	0	0	0	0	0	0	1	-360	360;
	266	458	0.42234194400000008	0.22587614800000005	0	0	0	0	0	0	1	-360	360;
	266	514	0.216325833	0.07102344699999999	0	0	0	0	0	0	1	-360	360;
	267	268	0.19493333299999996	0.059326358999999988	0	0	0	0	0	0	1	-360	360;
	267	308	0.30336666700000003	0.092327154000000369	0	0	0	0	0	0	1	-360	360;
	267	510	0.106677778	0.032536864000000006	0	0	0	0	0	0	1	-360	360;
	268	270	0.261479132	0.065728773000000018	0	0	0	0	0	0	1	-360	360;
	270	272	0.111588889	0.033961162000000003	0	0	0	0	0	0	1	-360	360;
	308	316	0.28416666699999998	0.086483792000000226	0	0	0	0	0	0	1	-360	360;
	316	319	0.29388375100000025	0.075691438999999819	0	0	0	0	0	0	1	-360	360;
	328	332	0.33882222299999998	0.10311776100000022	0	0	0	0	0	0	1	-360	360;
	354	357	0.3088261109999999	0.17334271899999995	0	0	0	0	0	0	1	-360	360;
	357	361	0.11755722299999997	0.077750927999999969	0	0	0	0	0	0	1	-360	360;
	361	369	0.12891847199999984	0.10848137599999977	0	0	0	0	0	0	1	-360	360;
	369	377	0.22816666599999963	0.070554608000000449	0	0	0	0	0	0	1	-360	360;
	379	380	0.066653193999999999	0.036343317999999999	0	0	0	0	0	0	1	-360	360;
	380	381	0.052732569000000007	0.027908578000000003	0	0	0	0	0	0	1	-360	360;
	381	384	0.10447444399999978	0.076714965999999579	0	0	0	0	0	0	1	-360	360;
	384	387	0.0086260420000000039	0.013162619000000004	0	0	0	0	0	0	1	-360	360;
	387	392	0.25304999999999889	0.38613315300000078	0	0	0	0	0	0	1	-360	360;
	387	421	0.16044444399999988	0.048940558999999953	0	0	0	0	0	0	1	-360	360;
	392	394	0.12355479099999973	0.14281811100000022	0	0	0	0	0	0	1	-360	360;
	394	402	0.1055322919999965	0.16103345800000157	0	0	0	0	0	0	1	-360	360;
	430	433	0.18348388999999984	0.086869399999999972	0	0	0	0	0	0	1	-360	360;
	433	443	0.36050000000000038	0.15943582700000167	0	0	0	0	0	0	1	-360	360;
	472	477	0.28601361199999797	0.22355867900000073	0	0	0	0	0	0	1	-360	360;
	510	511	0.064555556	0.019711312000000005	0	0	0	0	0	0	1	-360	360;
	514	517	0.2581222219999999	0.078557378999999969	0	0	0	0	0	0	1	-360	360;
	517	518	0.26226666699999995	0.079818706999999933	0	0	0	0	0	0	1	-360	360;
	518	521	0.30849999999999989	0.093889441999999962	0	0	0	0	0	0	1	-360	360;
	521	524	0.39006666600000017	0.11871358800000005	0	0	0	0	0	0	1	-360	360;
];
